Version 4
SHEET 1 880 680
TEXT -56 72 Left 2 !Vin n1 GND ac(2.5v)\nR1 n1 n2 100\nR2 n2 n3 100\nR3 n2 GND 100\nC1 n3 GND 10uF\n.ac dec 10 1Hz 10kHz
