Version 4
SHEET 1 880 680
TEXT 40 56 Left 2 !Vin n1 GND AC(2.5v)\nR1 n1 n2 100\nR2 n2 n3 100\nR3 n2 GND 100\nL1 n3 GND 4.25mH\n.ac dec 10 100Hz 100kHz
